57
Energy = -1448.304185024
C     0.0000000   -1.9589308   -0.5706374 
C    -1.2617477   -3.8228390   -1.5616496 
C    -2.3702883   -3.4344165   -0.5821665 
C    -2.4548537   -1.9093224   -0.4830207 
H    -1.5451020   -3.5399301   -2.6071317 
H    -1.1037328   -4.9238312   -1.5560915 
H    -3.3408065   -3.8577177   -0.9199321 
H    -2.1406344   -3.8621363    0.4189020 
H    -2.9026055   -1.4914488   -1.4199266 
H    -3.1257536   -1.6127270    0.3527127 
C     1.2617477   -3.8228390   -1.5616496 
C     2.4548537   -1.9093224   -0.4830207 
C     2.3702883   -3.4344165   -0.5821665 
H     1.1037328   -4.9238312   -1.5560915 
H     3.3408065   -3.8577177   -0.9199321 
H     1.5451020   -3.5399301   -2.6071317 
H     2.1406344   -3.8621363    0.4189020 
H     3.1257536   -1.6127270    0.3527127 
N     1.1444926   -1.3191324   -0.2355236 
N    -1.1444926   -1.3191324   -0.2355236 
N     0.0000000   -3.1905623   -1.1762167 
H     2.9026055   -1.4914488   -1.4199266 
B     0.8712123    0.0000000    0.5461717 
N     1.1444926    1.3191324   -0.2355236 
C     0.0000000    1.9589308   -0.5706374 
C     2.4548537    1.9093224   -0.4830207 
N    -1.1444926    1.3191324   -0.2355236 
N     0.0000000    3.1905623   -1.1762167 
C     2.3702883    3.4344165   -0.5821665 
H     2.9026055    1.4914488   -1.4199266 
H     3.1257536    1.6127270    0.3527127 
C    -2.4548537    1.9093224   -0.4830207 
B    -0.8712123    0.0000000    0.5461717 
C     1.2617477    3.8228390   -1.5616496 
C    -1.2617477    3.8228390   -1.5616496 
H     3.3408065    3.8577177   -0.9199321 
H     2.1406344    3.8621363    0.4189020 
C    -2.3702883    3.4344165   -0.5821665 
H    -3.1257536    1.6127270    0.3527127 
H    -2.9026055    1.4914488   -1.4199266 
H     1.5451020    3.5399301   -2.6071317 
H     1.1037328    4.9238312   -1.5560915 
H    -1.1037328    4.9238312   -1.5560915 
H    -1.5451020    3.5399301   -2.6071317 
H    -3.3408065    3.8577177   -0.9199321 
H    -2.1406344    3.8621363    0.4189020 
H     1.5949082    0.0000000    1.6105195 
H    -1.5949082    0.0000000    1.6105195 
Mo    0.0000000    0.0000000    2.9111187 
C     0.0000000   -2.0368138    2.9514414 
C    -1.4013490    0.0000000    4.2995415 
C     0.0000000    2.0368138    2.9514414 
C     1.4013490    0.0000000    4.2995415 
O     2.2527889    0.0000000    5.1086521 
O     0.0000000   -3.2061002    3.0033495 
O    -2.2527889    0.0000000    5.1086521 
O     0.0000000    3.2061002    3.0033495 
